CM 
CE 
GW   1    9        0.7620015240    0.0000000000    2.6416052832   -0.7620015240    0.0000000000    2.6416052832    0.011113
GW   2    9       -0.7620015240    0.0000000000    2.6416052832   -1.3008179689    0.0000000000    3.1804217281    0.011113
GW   3    9       -1.3008179689    0.0000000000    3.1804217281   -1.3008179689    0.0000000000    3.9424232521    0.011113
GW   4    9       -1.3008179689    0.0000000000    3.9424232521   -0.7620015240    0.0000000000    4.4812396970    0.011113
GW   5    9       -0.7620015240    0.0000000000    4.4812396970    0.7620015240    0.0000000000    4.4812396970    0.011113
GW   6    9        0.7620015240    0.0000000000    4.4812396970    1.3008179689    0.0000000000    3.9424232521    0.011113
GW   7    9        1.3008179689    0.0000000000    3.9424232521    1.3008179689    0.0000000000    3.1804217281    0.011113
GW   8    9        1.3008179689    0.0000000000    3.1804217281    0.7620015240    0.0000000000    2.6416052832    0.011113
GS   0    0    1.0  
GE 
LD   5    1    0    0      58000000.0
LD   5    2    0    0      58000000.0
LD   5    3    0    0      58000000.0
LD   5    4    0    0      58000000.0
LD   5    5    0    0      58000000.0
LD   5    6    0    0      58000000.0
LD   5    7    0    0      58000000.0
LD   5    8    0    0      58000000.0
GN   2    0    5.0000        0.0020
EK 
EX   0    1    4        0.0000000000    1.0000000000    0.0000000000    1.0000000000    0.0000000000    0.0000000000
FR                      0.0000000000    0.0000000000    0.0000000000    0.0000000000    7.1000000000    0.0000000000
EN 
